  38
TEST11 - MGO BULK                                                               
 MG   0.00000000000E+00   0.00000000000E+00   0.00000000000E+00
 O    2.10500000000E+00   2.10500000000E+00   2.10500000000E+00
 MG   0.00000000000E+00  -2.10500000000E+00  -2.10500000000E+00
 O    2.10500000000E+00   0.00000000000E+00   0.00000000000E+00
 MG   0.00000000000E+00   2.10500000000E+00   2.10500000000E+00
 O    2.10500000000E+00   4.21000000000E+00   4.21000000000E+00
 MG   2.10500000000E+00   0.00000000000E+00  -2.10500000000E+00
 O    4.21000000000E+00   2.10500000000E+00   0.00000000000E+00
 MG  -2.10500000000E+00   0.00000000000E+00   2.10500000000E+00
 O    0.00000000000E+00   2.10500000000E+00   4.21000000000E+00
 MG   2.10500000000E+00  -2.10500000000E+00   0.00000000000E+00
 O    4.21000000000E+00   0.00000000000E+00   2.10500000000E+00
 MG  -2.10500000000E+00   2.10500000000E+00   0.00000000000E+00
 O    0.00000000000E+00   4.21000000000E+00   2.10500000000E+00
 MG  -2.10500000000E+00   0.00000000000E+00  -2.10500000000E+00
 O    0.00000000000E+00   2.10500000000E+00   0.00000000000E+00
 MG   2.10500000000E+00   0.00000000000E+00   2.10500000000E+00
 O    4.21000000000E+00   2.10500000000E+00   4.21000000000E+00
 MG   0.00000000000E+00   2.10500000000E+00  -2.10500000000E+00
 O    2.10500000000E+00   4.21000000000E+00   0.00000000000E+00
 MG   0.00000000000E+00  -2.10500000000E+00   2.10500000000E+00
 O    2.10500000000E+00   0.00000000000E+00   4.21000000000E+00
 MG  -2.10500000000E+00  -2.10500000000E+00   0.00000000000E+00
 O    0.00000000000E+00   0.00000000000E+00   2.10500000000E+00
 MG   2.10500000000E+00   2.10500000000E+00   0.00000000000E+00
 O    4.21000000000E+00   4.21000000000E+00   2.10500000000E+00
 MG   0.00000000000E+00   0.00000000000E+00  -4.21000000000E+00
 O    2.10500000000E+00   2.10500000000E+00  -2.10500000000E+00
 MG   0.00000000000E+00   0.00000000000E+00   4.21000000000E+00
 O    2.10500000000E+00   2.10500000000E+00   6.31500000000E+00
 MG   0.00000000000E+00  -4.21000000000E+00   0.00000000000E+00
 O    2.10500000000E+00  -2.10500000000E+00   2.10500000000E+00
 MG   0.00000000000E+00   4.21000000000E+00   0.00000000000E+00
 O    2.10500000000E+00   6.31500000000E+00   2.10500000000E+00
 MG   4.21000000000E+00   0.00000000000E+00   0.00000000000E+00
 O    6.31500000000E+00   2.10500000000E+00   2.10500000000E+00
 MG  -4.21000000000E+00   0.00000000000E+00   0.00000000000E+00
 O   -2.10500000000E+00   2.10500000000E+00   2.10500000000E+00
